# sample of Si
data_Si
_cell_length_a   5.46872800
_cell_length_b   5.46872800
_cell_length_c   5.46872800
_cell_angle_alpha   90.00000000
_cell_angle_beta    90.00000000
_cell_angle_gamma   90.00000000
loop_
 _symmetry_equiv_pos_as_xyz
 'x, y, z'
 '-y+1/4, x+3/4, z+3/4'
 '-x, -y, z'
 'y+1/4, -x+3/4, z+3/4'
 'x, -y, -z'
 '-y+1/4, -x+3/4, -z+3/4'
 '-x, y, -z'
 'y+1/4, x+3/4, -z+3/4'
 'z, x, y'
 'z+1/4, -y+3/4, x+3/4'
 'z, -x, -y'
 'z+1/4, y+3/4, -x+3/4'
 '-z, x, -y'
 '-z+1/4, -y+3/4, -x+3/4'
 '-z, -x, y'
 '-z+1/4, y+3/4, x+3/4'
 'y, z, x'
 'x+1/4, z+3/4, -y+3/4'
 '-y, z, -x'
 '-x+1/4, z+3/4, y+3/4'
 '-y, -z, x'
 '-x+1/4, -z+3/4, -y+3/4'
 'y, -z, -x'
 'x+1/4, -z+3/4, y+3/4'
 '-x+1/4, -y+3/4, -z+3/4'
 'y, -x, -z'
 'x+1/4, y+3/4, -z+3/4'
 '-y, x, -z'
 '-x+1/4, y+3/4, z+3/4'
 'y, x, z'
 'x+1/4, -y+3/4, z+3/4'
 '-y, -x, z'
 '-z+1/4, -x+3/4, -y+3/4'
 '-z, y, -x'
 '-z+1/4, x+3/4, y+3/4'
 '-z, -y, x'
 'z+1/4, -x+3/4, y+3/4'
 'z, y, x'
 'z+1/4, x+3/4, -y+3/4'
 'z, -y, -x'
 '-y+1/4, -z+3/4, -x+3/4'
 '-x, -z, y'
 'y+1/4, -z+3/4, x+3/4'
 'x, -z, -y'
 'y+1/4, z+3/4, -x+3/4'
 'x, z, y'
 '-y+1/4, z+3/4, x+3/4'
 '-x, z, -y'
 'x+1/2, y+1/2, z'
 '-y+3/4, x+1/4, z+3/4'
 '-x+1/2, -y+1/2, z'
 'y+3/4, -x+1/4, z+3/4'
 'x+1/2, -y+1/2, -z'
 '-y+3/4, -x+1/4, -z+3/4'
 '-x+1/2, y+1/2, -z'
 'y+3/4, x+1/4, -z+3/4'
 'z+1/2, x+1/2, y'
 'z+3/4, -y+1/4, x+3/4'
 'z+1/2, -x+1/2, -y'
 'z+3/4, y+1/4, -x+3/4'
 '-z+1/2, x+1/2, -y'
 '-z+3/4, -y+1/4, -x+3/4'
 '-z+1/2, -x+1/2, y'
 '-z+3/4, y+1/4, x+3/4'
 'y+1/2, z+1/2, x'
 'x+3/4, z+1/4, -y+3/4'
 '-y+1/2, z+1/2, -x'
 '-x+3/4, z+1/4, y+3/4'
 '-y+1/2, -z+1/2, x'
 '-x+3/4, -z+1/4, -y+3/4'
 'y+1/2, -z+1/2, -x'
 'x+3/4, -z+1/4, y+3/4'
 '-x+3/4, -y+1/4, -z+3/4'
 'y+1/2, -x+1/2, -z'
 'x+3/4, y+1/4, -z+3/4'
 '-y+1/2, x+1/2, -z'
 '-x+3/4, y+1/4, z+3/4'
 'y+1/2, x+1/2, z'
 'x+3/4, -y+1/4, z+3/4'
 '-y+1/2, -x+1/2, z'
 '-z+3/4, -x+1/4, -y+3/4'
 '-z+1/2, y+1/2, -x'
 '-z+3/4, x+1/4, y+3/4'
 '-z+1/2, -y+1/2, x'
 'z+3/4, -x+1/4, y+3/4'
 'z+1/2, y+1/2, x'
 'z+3/4, x+1/4, -y+3/4'
 'z+1/2, -y+1/2, -x'
 '-y+3/4, -z+1/4, -x+3/4'
 '-x+1/2, -z+1/2, y'
 'y+3/4, -z+1/4, x+3/4'
 'x+1/2, -z+1/2, -y'
 'y+3/4, z+1/4, -x+3/4'
 'x+1/2, z+1/2, y'
 '-y+3/4, z+1/4, x+3/4'
 '-x+1/2, z+1/2, -y'
 'x+1/2, y, z+1/2'
 '-y+3/4, x+3/4, z+1/4'
 '-x+1/2, -y, z+1/2'
  'y+3/4, -x+3/4, z+1/4'
  'x+1/2, -y, -z+1/2'
  '-y+3/4, -x+3/4, -z+1/4'
  '-x+1/2, y, -z+1/2'
  'y+3/4, x+3/4, -z+1/4'
  'z+1/2, x, y+1/2'
  'z+3/4, -y+3/4, x+1/4'
  'z+1/2, -x, -y+1/2'
  'z+3/4, y+3/4, -x+1/4'
  '-z+1/2, x, -y+1/2'
  '-z+3/4, -y+3/4, -x+1/4'
  '-z+1/2, -x, y+1/2'
  '-z+3/4, y+3/4, x+1/4'
  'y+1/2, z, x+1/2'
  'x+3/4, z+3/4, -y+1/4'
  '-y+1/2, z, -x+1/2'
  '-x+3/4, z+3/4, y+1/4'
  '-y+1/2, -z, x+1/2'
  '-x+3/4, -z+3/4, -y+1/4'
  'y+1/2, -z, -x+1/2'
  'x+3/4, -z+3/4, y+1/4'
  '-x+3/4, -y+3/4, -z+1/4'
  'y+1/2, -x, -z+1/2'
  'x+3/4, y+3/4, -z+1/4'
  '-y+1/2, x, -z+1/2'
  '-x+3/4, y+3/4, z+1/4'
  'y+1/2, x, z+1/2'
  'x+3/4, -y+3/4, z+1/4'
  '-y+1/2, -x, z+1/2'
  '-z+3/4, -x+3/4, -y+1/4'
  '-z+1/2, y, -x+1/2'
  '-z+3/4, x+3/4, y+1/4'
  '-z+1/2, -y, x+1/2'
  'z+3/4, -x+3/4, y+1/4'
  'z+1/2, y, x+1/2'
  'z+3/4, x+3/4, -y+1/4'
  'z+1/2, -y, -x+1/2'
  '-y+3/4, -z+3/4, -x+1/4'
  '-x+1/2, -z, y+1/2'
  'y+3/4, -z+3/4, x+1/4'
  'x+1/2, -z, -y+1/2'
  'y+3/4, z+3/4, -x+1/4'
  'x+1/2, z, y+1/2'
  '-y+3/4, z+3/4, x+1/4'
  '-x+1/2, z, -y+1/2'
  'x, y+1/2, z+1/2'
  '-y+1/4, x+1/4, z+1/4'
  '-x, -y+1/2, z+1/2'
  'y+1/4, -x+1/4, z+1/4'
  'x, -y+1/2, -z+1/2'
  '-y+1/4, -x+1/4, -z+1/4'
  '-x, y+1/2, -z+1/2'
  'y+1/4, x+1/4, -z+1/4'
  'z, x+1/2, y+1/2'
  'z+1/4, -y+1/4, x+1/4'
  'z, -x+1/2, -y+1/2'
  'z+1/4, y+1/4, -x+1/4'
  '-z, x+1/2, -y+1/2'
  '-z+1/4, -y+1/4, -x+1/4'
  '-z, -x+1/2, y+1/2'
  '-z+1/4, y+1/4, x+1/4'
  'y, z+1/2, x+1/2'
  'x+1/4, z+1/4, -y+1/4'
  '-y, z+1/2, -x+1/2'
  '-x+1/4, z+1/4, y+1/4'
  '-y, -z+1/2, x+1/2'
  '-x+1/4, -z+1/4, -y+1/4'
  'y, -z+1/2, -x+1/2'
  'x+1/4, -z+1/4, y+1/4'
  '-x+1/4, -y+1/4, -z+1/4'
  'y, -x+1/2, -z+1/2'
  'x+1/4, y+1/4, -z+1/4'
  '-y, x+1/2, -z+1/2'
  '-x+1/4, y+1/4, z+1/4'
  'y, x+1/2, z+1/2'
  'x+1/4, -y+1/4, z+1/4'
  '-y, -x+1/2, z+1/2'
  '-z+1/4, -x+1/4, -y+1/4'
  '-z, y+1/2, -x+1/2'
  '-z+1/4, x+1/4, y+1/4'
  '-z, -y+1/2, x+1/2'
  'z+1/4, -x+1/4, y+1/4'
  'z, y+1/2, x+1/2'
  'z+1/4, x+1/4, -y+1/4'
  'z, -y+1/2, -x+1/2'
  '-y+1/4, -z+1/4, -x+1/4'
  '-x, -z+1/2, y+1/2'
  'y+1/4, -z+1/4, x+1/4'
  'x, -z+1/2, -y+1/2'
  'y+1/4, z+1/4, -x+1/4'
  'x, z+1/2, y+1/2'
  '-y+1/4, z+1/4, x+1/4'
  '-x, z+1/2, -y+1/2'
loop_
 _atom_site_type_symbol
 _atom_site_label
 _atom_site_symmetry_multiplicity
 _atom_site_fract_x
 _atom_site_fract_y
 _atom_site_fract_z
 _atom_site_occupancy
  Si  Si0  8  0.00000000  0.00000000  0.50000000  1
